/*---------------------------------------------------------------------------*\
| =========                 |                                                 |
| \\      /  F ield         | OpenFOAM: The Open Source CFD Toolbox           |
|  \\    /   O peration     | Version:  2112                                  |
|   \\  /    A nd           | Website:  www.openfoam.com                      |
|    \\/     M anipulation  |                                                 |
\*---------------------------------------------------------------------------*/
Build  : _14aeaf8dab-20211220 OPENFOAM=2112 version=v2112
Arch   : "LSB;label=32;scalar=64"
Exec   : simpleFoam -parallel
Date   : Feb 15 2023
Time   : 11:22:28
Host   : gibi
PID    : 13954
I/O    : uncollated
Case   : /tmp/chevalier/OpenFOAM/nozzle
nProcs : 20
Hosts  :
(
    (gibi 20)
)
Pstream initialized with:
    floatTransfer      : 0
    nProcsSimpleSum    : 0
    commsType          : nonBlocking
    polling iterations : 0
trapFpe: Floating point exception trapping enabled (FOAM_SIGFPE).
fileModificationChecking : Monitoring run-time modified files using timeStampMaster (fileModificationSkew 5, maxFileModificationPolls 20)
allowSystemOperations : Allowing user-supplied system call operations

// * * * * * * * * * * * * * * * * * * * * * * * * * * * * * * * * * * * * * //
Create time

Create mesh for time = 5000


[4] 
[4] [6] 
[6] 
[6] --> FOAM FATAL ERROR: (openfoam-[7] 
[7] 
[7] --> FOAM FATAL ERROR: (openfoam-2112[8] 
[8] 
[8] --> FOAM FATAL ERROR: (openfoam-2112)
[8] cannot find file "/tmp/chevalier/OpenFOAM/nozzle/processor8/5000/p"
[8] 
[8]     From virtual Foam::autoPtr<Foam::ISstream> Foam::fileOperations::uncollatedFileOperation::readStream(Foam::regIOobject&, const Foam::fileName&, const Foam::word&, bool) const
[8]     in file global/fileOperations/uncollatedFileOperation/uncollatedFileOperation.C at line 542.[9] 
[9] 
[9] --> FOAM FATAL ERROR: (openfoam-2112)
[9] cannot find file "/tmp/chevalier/OpenFOAM/nozzle/processor9/5000/p"
[9] 
[9]     From virtual Foam::autoPtr<Foam::ISstream> Foam::fileOperations::uncollatedFileOperation::readStream(Foam::regIOobject&, const Foam::fileName&, const Foam::word&, bool) const
[9]     in file global/fileOperations/uncollatedFileOperation/uncollatedFileOperation.C at line 542.
[9] [10] 
[10] 
[10] --> FOAM FATAL ERROR: (openfoam-2112)
[10] cannot find file "/tmp/chevalier/OpenFOAM/nozzle/processor10/5000/p"
[10] 
[10]     From virtual Foam::autoPtr<Foam::ISstream> Foam::fileOperations::uncollatedFileOperation::readStream(Foam::regIOobject&, const Foam::fileName&, const Foam::word&, bool) const
[10]     in file global/fileOperations/uncollatedFileOperation/uncollatedFileOperation.C at line 542.
[10] 
FOAM parallel run exiting
[10] 
[11] 
[11] 
[11] --> FOAM FATAL ERROR: (openfoam-2112)
[11] cannot find file "/tmp/chevalier/OpenFOAM/nozzle/processor11/5000/p"
[11] 
[11]     From virtual Foam::autoPtr<Foam::ISstream> Foam::fileOperations::uncollatedFileOperation::readStream(Foam::regIOobject&, const Foam::fileName&, const Foam::word&, bool) const
[11]     in file global/fileOperations/uncollatedFileOperation/uncollatedFileOperation.C at line 542.
[11] 
FOAM parallel run exiting
[11] 
[12] 
[12] 
[12] --> FOAM FATAL ERROR: (openfoam-2112)
[12] cannot find file "/tmp/chevalier/OpenFOAM/nozzle/processor12/5000/p"
[12] 
[12]     From virtual Foam::autoPtr<Foam::ISstream> Foam::fileOperations::uncollatedFileOperation::readStream(Foam::regIOobject&, const Foam::fileName&, const Foam::word&, bool) const
[12]     in file global/fileOperations/uncollatedFileOperation/uncollatedFileOperation.C at line 542.
[12] 
FOAM parallel run exiting
[12] 
[13] 
[13] 
[13] --> FOAM FATAL ERROR: (openfoam-2112)
[13] cannot find file "/tmp/chevalier/OpenFOAM/nozzle/processor13/5000/p"
[13] 
[13]     From virtual Foam::autoPtr<Foam::ISstream> Foam::fileOperations::uncollatedFileOperation::readStream(Foam::regIOobject&, const Foam::fileName&, const Foam::word&, bool) const
[13]     in file global/fileOperations/uncollatedFileOperation/uncollatedFileOperation.C at line 542.
[13] 
FOAM parallel run exiting
[13] 
[14] 
[14] 
[14] --> FOAM FATAL ERROR: (openfoam-2112)
[14] cannot find file "/tmp/chevalier/OpenFOAM/nozzle/processor14/5000/p"
[14] 
[14]     From virtual Foam::autoPtr<Foam::ISstream> Foam::fileOperations::uncollatedFileOperation::readStream(Foam::regIOobject&, const Foam::fileName&, const Foam::word&, bool) const
[14]     in file global/fileOperations/uncollatedFileOperation/uncollatedFileOperation.C at line 542.
[14] 
FOAM parallel run exiting
[14] 
[15] 
[15] 
[15] --> FOAM FATAL ERROR: (openfoam-2112)
[15] cannot find file "/tmp/chevalier/OpenFOAM/nozzle/processor15/5000/p"
[15] 
[15]     From virtual Foam::autoPtr<Foam::ISstream> Foam::fileOperations::uncollatedFileOperation::readStream(Foam::regIOobject&, const Foam::fileName&, const Foam::word&, bool) const
[15]     in file global/fileOperations/uncollatedFileOperation/uncollatedFileOperation.C at line 542.
[15] 
FOAM parallel run exiting
[15] 
[16] 
[16] 
[16] --> FOAM FATAL ERROR: (openfoam-2112)
[16] cannot find file "/tmp/chevalier/OpenFOAM/nozzle/processor16/5000/p"
[16] 
[16]     From virtual Foam::autoPtr<Foam::ISstream> Foam::fileOperations::uncollatedFileOperation::readStream(Foam::regIOobject&, const Foam::fileName&, const Foam::word&, bool) const
[16]     in file global/fileOperations/uncollatedFileOperation/uncollatedFileOperation.C at line 542.
[16] 
FOAM parallel run exiting
[16] 
[17] 
[17] 
[17] --> FOAM FATAL ERROR: (openfoam-2112)
[17] cannot find file "/tmp/chevalier/OpenFOAM/nozzle/processor17/5000/p"
[17] 
[17]     From virtual Foam::autoPtr<Foam::ISstream> Foam::fileOperations::uncollatedFileOperation::readStream(Foam::regIOobject&, const Foam::fileName&, const Foam::word&, bool) const
[17]     in file global/fileOperations/uncollatedFileOperation/uncollatedFileOperation.C at line 542.
[17] 
FOAM parallel run exiting
[17] 
[18] 
[18] 
[18] --> FOAM FATAL ERROR: (openfoam-2112)
[18] cannot find file "/tmp/chevalier/OpenFOAM/nozzle/processor18/5000/p"
[18] 
[18]     From virtual Foam::autoPtr<Foam::ISstream> Foam::fileOperations::uncollatedFileOperation::readStream(Foam::regIOobject&, const Foam::fileName&, const Foam::word&, bool) const
[18]     in file global/fileOperations/uncollatedFileOperation/uncollatedFileOperation.C at line 542.
[18] 
FOAM parallel run exiting
[18] 
[19] 
[19] 
[19] --> FOAM FATAL ERROR: (openfoam-2112)
[19] cannot find file "/tmp/chevalier/OpenFOAM/nozzle/processor19/5000/p"
[19] 
[19]     From virtual Foam::autoPtr<Foam::ISstream> Foam::fileOperations::uncollatedFileOperation::readStream(Foam::regIOobject&, const Foam::fileName&, const Foam::word&, bool) const
[19]     in file global/fileOperations/uncollatedFileOperation/uncollatedFileOperation.C at line 542.
[19] 
FOAM parallel run exiting
[19] 
[1] 
[1] 
[1] --> FOAM FATAL ERROR: (openfoam-2112)
[1] cannot find file "/tmp/chevalier/OpenFOAM/nozzle/processor1/5000/p"
[1] 
[1]     From virtual Foam::autoPtr<Foam::ISstream> Foam::fileOperations::uncollatedFileOperation::readStream(Foam::regIOobject&, const Foam::fileName&, const Foam::word&, bool) const
[1]     in file global/fileOperations/uncollatedFileOperation/uncollatedFileOperation.C at line 542.
[1] 
FOAM parallel run exiting
[1] 
[2] 
[2] 
[2] --> FOAM FATAL ERROR: (openfoam-2112)
[2] cannot find file "/tmp/chevalier/OpenFOAM/nozzle/processor2/5000/p"
[2] 
[2]     From virtual Foam::autoPtr<Foam::ISstream> Foam::fileOperations::uncollatedFileOperation::readStream(Foam::regIOobject&, const Foam::fileName&, const Foam::word&, bool) const
[2]     in file global/fileOperations/uncollatedFileOperation/uncollatedFileOperation.C at line 542.
[2] 
FOAM parallel run exiting
[2] 
[3] 
[3] 
[3] --> FOAM FATAL ERROR: (openfoam-2112)
[3] cannot find file "/tmp/chevalier/OpenFOAM/nozzle/processor3/5000/p"
[3] 
[3]     From virtual Foam::autoPtr<Foam::ISstream> Foam::fileOperations::uncollatedFileOperation::readStream(Foam::regIOobject&, const Foam::fileName&, const Foam::word&, bool) const
[3]     in file global/fileOperations/uncollatedFileOperation/uncollatedFileOperation.C at line 542.
[3] 
FOAM parallel run exiting
[3] 
[5] 
[5] 
[5] --> FOAM FATAL ERROR: (openfoam-2112)
[5] cannot find file "/tmp/chevalier/OpenFOAM/nozzle/processor5/5000/p"
[5] 
[5]     From virtual Foam::autoPtr<Foam::ISstream> Foam::fileOperations::uncollatedFileOperation::readStream(Foam::regIOobject&, const Foam::fileName&, const Foam::word&, bool) const
[5]     in file global/fileOperations/uncollatedFileOperation/uncollatedFileOperation.C at line 542.
[5] 
FOAM parallel run exiting
[5] 

[4] --> FOAM FATAL ERROR: (openfoam-2112)
[4] cannot find file "/tmp/chevalier/OpenFOAM/nozzle/processor4/5000/p"
[4] 
[4]     From virtual Foam::autoPtr<Foam::ISstream> Foam::fileOperations::uncollatedFileOperation::readStream(Foam::regIOobject&, const Foam::fileName&, const Foam::word&, bool) const
[4]     in file global/fileOperations/uncollatedFileOperation/uncollatedFileOperation.C at line 542.
[4] 
FOAM parallel run exiting
[4] 
2112)
[6] cannot find file "/tmp/chevalier/OpenFOAM/nozzle/processor6/5000/p"
[6] 
[6]     From virtual Foam::autoPtr<Foam::ISstream> Foam::fileOperations::uncollatedFileOperation::readStream(Foam::regIOobject&, const Foam::fileName&, const Foam::word&, bool) const
[6]     in file global/fileOperations/uncollatedFileOperation/uncollatedFileOperation.C at line 542.
[6] 
FOAM parallel run exiting
[6] 
)
[7] cannot find file "/tmp/chevalier/OpenFOAM/nozzle/processor7/5000/p"
[7] 
[7]     From virtual Foam::autoPtr<Foam::ISstream> Foam::fileOperations::uncollatedFileOperation::readStream(Foam::regIOobject&, const Foam::fileName&, const Foam::word&, bool) const
[7]     in file global/fileOperations/uncollatedFileOperation/uncollatedFileOperation.C at line 542.
[7] 
FOAM parallel run exiting
[7] 

[8] 
FOAM parallel run exiting
[8] 

FOAM parallel run exiting
[9] 
SIMPLE: convergence criteria
--------------------------------------------------------------------------
MPI_ABORT was invoked on rank 1 in communicator MPI_COMM_WORLD
with errorcode 1.

NOTE: invoking MPI_ABORT causes Open MPI to kill all MPI processes.
You may or may not see output from other processes, depending on
exactly when Open MPI kills them.
--------------------------------------------------------------------------
[0] 
[0] 
[0] --> FOAM FATAL ERROR: (openfoam-2112)
[0] cannot find file "/tmp/chevalier/OpenFOAM/nozzle/processor0/5000/p"
[0] 
[0]     From virtual Foam::autoPtr<Foam::ISstream> Foam::fileOperations::uncollatedFileOperation::readStream(Foam::regIOobject&, const Foam::fileName&, const Foam::word&, bool) const
[0]     in file global/fileOperations/uncollatedFileOperation/uncollatedFileOperation.C at line 542.
[0] 
FOAM parallel run exiting
[0] 
[0] #0  Foam::error::printStack(Foam::Ostream&)    field p	 tolerance 1e-12
    field U	 tolerance 1e-12
    field nuTilda	 tolerance 1e-09

Reading field p

[gibi:13949] 19 more processes have sent help message help-mpi-api.txt / mpi-abort
[gibi:13949] Set MCA parameter "orte_base_help_aggregate" to 0 to see all help / error messages
